/*--------------------------------*- C++ -*----------------------------------*\
| =========                 |                                                 |
| \\      /  F ield         | OpenFOAM: The Open Source CFD Toolbox           |
|  \\    /   O peration     | Version:  4.x                                   |
|   \\  /    A nd           | Web:      www.OpenFOAM.org                      |
|    \\/     M anipulation  |                                                 |
\*---------------------------------------------------------------------------*/
FoamFile
{
    version     2.0;
    format      ascii;
    class       volScalarField;
    object      p;
}
// ************************************************************************* //

dimensions          [1 -1 -2 0 0 0 0];

internalField       uniform 3.97e+06;

boundaryField
{
    inlet
    {
        type            fixedFluxPressure;
        value           uniform 0;
    }

    outlet
    {
        type            uniformFixedValue;
        uniformValue    constant 3.97e+06;
    }

    bottom1
    {
        type            uniformFixedValue; 
        uniformValue    constant 3.97e+06;

    }

    bottom2
    {
        type            uniformFixedValue; 
        uniformValue    constant 3.97e+06;

    }

    top1
    {
        type            uniformFixedValue; 
        uniformValue    constant 3.97e+06;

    }

    top2
    {
        type            uniformFixedValue; 
        uniformValue    constant 3.97e+06;
    }

}

// ************************************************************************* //
